   42
 
 N    -0.028418     1.684426     0.440613 
 C    -0.928799     0.676522     0.428096 
 C    -2.147062     1.130075    -0.136688 
 C    -2.041768     2.587493    -0.449505 
 C    -0.619374     2.956385     0.005651 
 C    -0.748410    -0.683801     0.844892 
 C    -1.757209    -1.576617     0.504151 
 C    -2.945357    -1.108154    -0.095943 
 C    -3.195350     0.237847    -0.407952 
 N    -3.963478    -2.115737    -0.408443 
 O    -3.575727    -3.159141    -0.915318 
 O    -4.308070     0.639553    -1.059393 
 C    -5.322105     1.294880    -0.275049 
 N     0.361244    -1.066388     1.585906 
 O     0.596587    -2.295675     1.806753 
 C     1.423767     1.589697     0.614722 
 C     2.092217     0.673078    -0.412290 
 O     1.969955     2.464368     1.240966 
 O     1.118303    -0.120801     2.052888 
 O    -5.125008    -1.859415    -0.135969 
 H    -1.649956    -2.628201     0.753965 
 H    -2.808643     3.173195     0.074959 
 H    -2.188239     2.767657    -1.524640 
 H    -0.599030     3.658482     0.850550 
 H     0.006410     3.368847    -0.794622 
 H    -5.721698     0.599038     0.472655 
 H    -6.105890     1.586645    -0.979417 
 H    -4.915214     2.187354     0.217720 
 N     1.900298     1.347750    -1.696352 
 C     3.539784     0.385007    -0.013874 
 C     4.185642    -0.633683    -0.944419 
 C     5.619964    -0.939904    -0.597553 
 H     1.533688    -0.267601    -0.461032 
 O     6.138929    -1.881921    -1.405536 
 O     6.262683    -0.421566     0.290067 
 H     2.627520     2.032507    -1.883435 
 H     1.850405     0.700035    -2.474673 
 H     4.109921     1.323890    -0.024513 
 H     3.552401     0.012902     1.017492 
 H     3.630944    -1.584979    -0.938002 
 H     4.171483    -0.290818    -1.990631 
 H     7.061526    -2.045474    -1.149533 
