   42
 
 N    -0.010039     1.798850     0.468404 
 C    -0.851943     0.705819     0.370894 
 C    -2.123300     1.123091    -0.072180 
 C    -2.113516     2.617990    -0.270203 
 C    -0.825327     3.040162     0.462813 
 C    -0.648630    -0.658715     0.673982 
 C    -1.647803    -1.584331     0.371113 
 C    -2.869932    -1.162270    -0.130463 
 C    -3.142537     0.220322    -0.342162 
 N    -3.865250    -2.189267    -0.399700 
 O    -3.460754    -3.317693    -0.666902 
 O    -4.291095     0.652874    -0.899319 
 C    -5.309955     1.152163    -0.014446 
 N     0.497955    -1.139472     1.426317 
 O     0.700381    -2.346557     1.472634 
 C     1.361812     1.877041     0.261412 
 C     2.035708     0.791168    -0.584315 
 O     1.961657     2.890045     0.578331 
 O     1.188319    -0.312079     2.015269 
 O    -5.050548    -1.888808    -0.336293 
 H    -1.484399    -2.636200     0.583970 
 H    -2.998400     3.113033     0.140448 
 H    -2.063288     2.855932    -1.343371 
 H    -1.032868     3.346431     1.496391 
 H    -0.266838     3.834393    -0.036778 
 H    -5.688901     0.337771     0.614158 
 H    -6.106071     1.536133    -0.658087 
 H    -4.913829     1.961981     0.611734 
 N     1.948221     1.308183    -1.952757 
 C     3.448251     0.487163    -0.076578 
 C     4.087144    -0.669424    -0.834678 
 C     5.482192    -0.997601    -0.368280 
 H     1.439545    -0.124211    -0.577589 
 O     5.993307    -2.054026    -1.025883 
 O     6.102535    -0.406179     0.489092 
 H     2.673894     1.994843    -2.141575 
 H     2.013122     0.569253    -2.644960 
 H     4.061602     1.392496    -0.175391 
 H     3.404727     0.248678     0.993452 
 H     3.483597    -1.586245    -0.744652 
 H     4.148127    -0.460210    -1.913919 
 H     6.890369    -2.228228    -0.696572 
