   42
 
 N     0.048829     1.680134     0.791745  0.049585
 C     0.954455     0.707419     0.584669 -0.000485
 C     2.100608     1.186777    -0.088624  0.011467
 C     1.884705     2.655803    -0.384010 -0.205181
 C     0.472373     2.946293     0.186434 -0.112274
 C     0.779883    -0.658147     0.941104  0.047349
 C     1.784369    -1.546537     0.582678 -0.275541
 C     2.935714    -1.062003    -0.051990  0.147651
 C     3.128684     0.300903    -0.418470  0.194388
 O     4.218090     0.599515    -1.138606 -0.312199
 C     4.816394     1.897941    -1.058996 -0.234116
 N    -0.381183    -1.054979     1.595650  0.368374
 O    -0.681771    -2.266218     1.779007 -0.487456
 N     3.974835    -2.045533    -0.341893  0.481249
 O     3.613323    -3.146016    -0.750019 -0.353879
 C    -1.439969     1.349937     0.986558  0.272423
 C    -2.011093     0.689684    -0.393011  0.070617
 C    -3.403630     0.134008    -0.081150 -0.342327
 C    -4.211013    -0.112375    -1.366883 -0.145117
 C    -5.593877    -0.616528    -1.043774  0.347977
 O    -6.612626     0.038997    -1.102134 -0.414384
 O    -2.148395     2.149257     1.568832 -0.430951
 O    -1.214385    -0.088045     2.023111 -0.392365
 O     5.142496    -1.745953    -0.132996 -0.335698
 N    -1.170748    -0.254082    -1.014367 -0.490557
 O    -5.582702    -1.899752    -0.643784 -0.410843
 H     1.688327    -2.602795     0.813528  0.179638
 H     1.930040     2.858003    -1.461447  0.168906
 H     2.638037     3.288220     0.099791  0.166463
 H    -0.242940     3.235046    -0.596282  0.161331
 H     0.467518     3.736838     0.947022  0.161740
 H     5.832293     1.776568    -1.443955  0.164535
 H     4.855972     2.235596    -0.015579  0.158254
 H     4.277416     2.623247    -1.679110  0.148935
 H    -2.086642     1.583967    -1.028683  0.137019
 H    -3.293467    -0.797125     0.489258  0.147283
 H    -3.924450     0.853891     0.559276  0.140444
 H    -6.486692    -2.170450    -0.413008  0.368051
 H    -4.316369     0.819489    -1.933989  0.136692
 H    -3.701642    -0.853977    -1.996884  0.143544
 H    -1.371542    -1.241521    -0.927173  0.283545
 H    -0.625824     0.002883    -1.825208  0.285908
