   42
 
 C     0.951551    -0.842659     0.628694  0.050061
 C     1.027977     0.557185     0.367151  0.039230
 C     2.220639     1.191665    -0.073413  0.043229
 C     3.379453     0.428292    -0.307453  0.205946
 C     3.261070    -0.957570    -0.081502  0.136912
 C     2.073810    -1.595747     0.347826 -0.274721
 N     0.011168     1.420955     0.399431  0.076806
 C     0.418057     2.763751     0.028857 -0.097641
 C     1.916111     2.643227    -0.327470 -0.228620
 C    -1.599865     1.085258     0.861806  0.321476
 O    -1.997753     1.779714     1.749805 -0.356089
 O     4.519962     0.900328    -0.824994 -0.313367
 C     5.004061     2.201016    -0.461946 -0.242072
 N     4.413167    -1.826929    -0.313017  0.481539
 O     4.205531    -2.883103    -0.900934 -0.347633
 N    -0.232407    -1.398097     1.105517  0.343473
 O    -1.120689    -0.582494     1.660118 -0.454531
 O    -0.436708    -2.646679     1.074277 -0.493978
 O     5.503128    -1.476390     0.114235 -0.331577
 C    -2.366730     0.637795    -0.380042  0.056240
 C    -3.757098     0.144932     0.052795 -0.323414
 C    -4.689707    -0.053654    -1.152512 -0.159501
 C    -6.040845    -0.551081    -0.709237  0.354585
 O    -6.413281    -1.704733    -0.754592 -0.417158
 H    -4.812602     0.900475    -1.683658  0.143066
 O    -6.810193     0.434328    -0.214040 -0.412097
 H     2.058643    -2.672423     0.489569  0.184194
 H     2.100851     2.908890    -1.377604  0.179746
 H     2.530301     3.312127     0.287846  0.177168
 H    -0.199366     3.106839    -0.813664  0.168328
 H     0.222089     3.441071     0.872574  0.171546
 H     6.078427     2.183625    -0.663133  0.165458
 H     4.833370     2.387017     0.605669  0.162556
 H     4.531254     2.979590    -1.071585  0.153393
 H    -2.493095     1.574662    -0.948585  0.141474
 N    -1.606175    -0.272134    -1.210855 -0.589987
 H    -7.653198     0.058642     0.089406  0.367551
 H    -3.634624    -0.800772     0.598789  0.136338
 H    -4.195497     0.871988     0.747470  0.137180
 H    -4.273888    -0.794472    -1.844446  0.130310
 H    -1.828204    -0.161803    -2.192953  0.262451
 H    -1.755595    -1.244255    -0.955561  0.252065
