   42
 
 C    -3.213542     0.253809    -0.374937 
 C    -2.208721     1.186188    -0.153811 
 C    -0.918001     0.808542     0.267128 
 C    -0.677286    -0.541841     0.601805 
 C    -1.660592    -1.497569     0.347544 
 C    -2.904487    -1.115972    -0.134718 
 C    -2.237163     2.675370    -0.389663 
 C    -0.938786     3.143547     0.296422 
 N    -0.096210     1.921373     0.307274 
 C     1.274514     2.023719     0.087603 
 O     1.844473     3.066816     0.366540 
 N     0.491882    -0.974095     1.349488 
 O     1.132255    -0.120993     1.956836 
 N    -3.882807    -2.171351    -0.349583 
 O    -5.072758    -1.895101    -0.264869 
 O    -4.385089     0.646033    -0.914468 
 C    -5.392276     1.148215    -0.018214 
 O    -3.459930    -3.298196    -0.594614 
 O     0.757674    -2.169099     1.377879 
 C     1.968453     0.912643    -0.667110 
 C     3.357653     0.579869    -0.126267 
 C     4.012795    -0.565704    -0.921335 
 N     3.206663    -1.769055    -0.850538 
 C     5.442975    -0.750609    -0.413921 
 O     5.812813    -1.644770     0.314613 
 O     6.263110     0.213942    -0.859710 
 H    -1.468727    -2.539301     0.585465 
 H    -3.120888     3.161721     0.033775 
 H    -2.222362     2.887735    -1.469328 
 H    -1.124711     3.468819     1.328438 
 H    -0.413343     3.939053    -0.235901 
 H    -5.736679     0.344276     0.642958 
 H    -6.213020     1.495615    -0.651642 
 H    -4.999296     1.984594     0.574144 
 H     2.061355     1.304298    -1.693679 
 H     1.360508     0.010860    -0.755688 
 H     3.994002     1.470989    -0.169315 
 H     3.284809     0.282054     0.929030 
 H     4.088359    -0.257060    -1.975171 
 H     7.152223     0.077135    -0.492455 
 H     3.603605    -2.515845    -1.413237 
 H     3.143853    -2.113351     0.105325 
