   26
 
 C     0.010043    -0.039194     0.005418 
 C     0.002359    -0.010357     1.528946 
 C     1.360497    -0.009953     1.965670 
 N     2.198820     0.004097     0.926450 
 C     1.513965     0.044436    -0.365152 
 C    -1.036859    -0.070600     2.443586 
 C    -0.692718    -0.139366     3.848689 
 C     0.618910    -0.093798     4.275841 
 C     1.666025    -0.035348     3.353936 
 N     3.009256    -0.023302     3.825348 
 O     3.925128     0.017311     2.989135 
 O    -2.339636    -0.041199     2.151545 
 C    -2.828494     0.535092     0.936582 
 N    -1.703842    -0.259246     4.877710 
 O    -1.456657     0.219420     5.987034 
 O    -2.746968    -0.853549     4.623026 
 O     3.223331    -0.051084     5.038699 
 H     0.842040    -0.123664     5.337557 
 H    -3.903376     0.661670     1.089870 
 H    -2.658973    -0.130497     0.083011 
 H    -2.362559     1.513190     0.764550 
 H    -0.542398     0.791889    -0.442343 
 H    -0.435962    -0.970364    -0.366770 
 H     1.760432     0.977474    -0.889883 
 H     3.201285     0.029826     1.053189 
 H     1.838911    -0.795360    -0.992063 
