   24
 
 C     0.005284     0.000862     0.007036 
 C     0.001195     0.000902     1.425275 
 C     1.224975     0.001081     2.159548 
 C     2.427544     0.014231     1.466819 
 C     2.424138     0.017508     0.034499 
 C     1.250548     0.011954    -0.670429 
 N    -1.054814     0.017558     2.261384 
 C    -0.658721    -0.161376     3.656870 
 C     0.865221     0.103451     3.637787 
 O     3.668324     0.038582     1.992886 
 C     3.904891    -0.171720     3.383494 
 N    -1.194959    -0.015918    -0.731621 
 O    -1.150239    -0.021272    -1.970664 
 O    -2.282469    -0.025328    -0.118801 
 H     1.251936     0.008617    -1.757428 
 H     4.991916    -0.175324     3.500217 
 H     3.499903    -1.141212     3.701000 
 H     3.477684     0.637674     3.988068 
 H     1.086354     1.112382     4.014782 
 H     1.392204    -0.609996     4.276068 
 H    -1.203004     0.531865     4.308634 
 H    -1.997006    -0.078271     1.909623 
 H    -0.884820    -1.188543     3.983424 
 H     3.385252     0.020691    -0.476767 
