   24
 
 C     0.804640     0.711810    -0.026100 
 C    -0.530750     1.158950    -0.011950 
 C    -1.604610     0.206630     0.018090 
 C    -1.332450    -1.222810     0.019760 
 C     0.024430    -1.656140     0.003720 
 C     1.018190    -0.717550     0.006220 
 C    -1.157910     2.518680    -0.022020 
 C    -2.663640     2.179640     0.016720 
 N    -2.801350     0.742480     0.033990 
 N    -2.350490    -2.067440     0.030510 
 O    -2.443980    -3.252210     0.032520 
 N     2.411700    -1.204340     0.042560 
 O     3.101400    -0.829850     0.972230 
 O     1.890200     1.430930    -0.091040 
 C     1.910140     2.874270    -0.138190 
 O     2.755940    -1.961690    -0.847640 
 H     0.262600    -2.718420     0.000530 
 H     2.968030     3.135750    -0.182600 
 H     1.457030     3.280060     0.771070 
 H     1.394810     3.223560    -1.037900 
 H    -0.889380     3.089630    -0.921640 
 H    -0.849690     3.121190     0.843400 
 H    -3.220570     2.569270    -0.851390 
 H    -3.178470     2.585830     0.903130 
