   31
 
 C     2.032780     0.518241     0.063140 
 C     0.889940     1.311211    -0.146380 
 C    -0.387280     0.707201    -0.380390 
 C    -0.516250    -0.716729    -0.403540 
 C     0.604710    -1.500309    -0.198960 
 C     1.840620    -0.897199     0.049520 
 C     0.677000     2.803241    -0.165320 
 C    -0.837540     2.911901    -0.460300 
 N    -1.381300     1.573771    -0.565790 
 N    -1.771070    -1.302919    -0.647370 
 O    -1.930500    -2.467009    -0.881670 
 N     2.961570    -1.802739     0.273020 
 O     3.794950    -1.508779     1.118200 
 O     3.274310     0.947611     0.243950 
 C     3.674470     2.307461     0.030130 
 O     2.986760    -2.837689    -0.388210 
 O    -2.771100    -0.740579     0.780380 
 C    -3.924790    -0.256829     0.381160 
 O    -4.349220    -0.285170    -0.764180 
 C    -4.688830     0.379640     1.529210 
 H     0.532530    -2.584999    -0.214560 
 H     4.757620     2.308921     0.170070 
 H     3.208430     2.971971     0.764830 
 H     3.433870     2.619411    -0.992340 
 H     1.276120     3.304991    -0.934140 
 H     0.935440     3.261541     0.798610 
 H    -1.049670     3.450521    -1.398410 
 H    -1.389000     3.452221     0.325760 
 H    -4.487390    -0.127020     2.479920 
 H    -5.760880     0.368690     1.305100 
 H    -4.352020     1.422920     1.618740 
