   29
 
 N     0.361636    -1.295371    -0.759970 
 C    -0.320200    -0.215838    -0.393391 
 C    -1.700224    -0.461682    -0.092323 
 C    -1.929825    -1.939523    -0.272297 
 C    -0.535085    -2.431139    -0.724357 
 C     0.214401     1.111526    -0.302844 
 C    -0.624729     2.153704     0.079175 
 C    -1.953463     1.891152     0.389784 
 C    -2.546906     0.591651     0.293228 
 O    -3.843239     0.522862     0.548137 
 C    -4.633165    -0.652937     0.320891 
 N     1.554661     1.335117    -0.583247 
 O     2.050733     2.412696    -0.709319 
 H    -2.550265     2.743246     0.706832 
 O     2.463089     0.266619     0.851854 
 C     3.437211    -0.424637     0.347377 
 C     4.065714    -1.374165     1.363151 
 O     3.836848    -0.373608    -0.814109 
 H    -0.243828     3.169470     0.155909 
 H    -5.652528    -0.363401     0.584209 
 H    -4.304021    -1.472740     0.966972 
 H    -4.590998    -0.940576    -0.735238 
 H    -2.699690    -2.157766    -1.021787 
 H    -2.243000    -2.418588     0.664928 
 H    -0.550323    -2.895203    -1.724106 
 H    -0.108532    -3.190531    -0.049419 
 H     3.944767    -1.012336     2.390371 
 H     5.126815    -1.512207     1.125892 
 H     3.555709    -2.344824     1.275088 
