   31
 
 C     0.027200     2.630740     0.128970 
 C    -0.490260     1.223180    -0.005920 
 C     0.625700     0.350980    -0.109440 
 N     1.773950     1.027140    -0.020770 
 C     1.562270     2.460910     0.072590 
 C    -1.791070     0.689350     0.065050 
 C    -1.881990    -0.717380     0.032470 
 C    -0.773210    -1.589670    -0.069040 
 C     0.499270    -1.067960    -0.193680 
 N     1.637100    -1.855140    -0.382510 
 O     1.602290    -3.111310    -0.238410 
 O    -2.907830     1.396760     0.264600 
 C    -3.060090     2.706010    -0.302110 
 N    -3.195970    -1.355420     0.116380 
 O    -4.098820    -0.922400    -0.583030 
 C     3.326250     0.316850     0.067360 
 C     3.506930    -0.227320     1.453170 
 O     2.724960    -1.249710    -0.845280 
 O     4.142000     0.841030    -0.638390 
 O    -3.299100    -2.317380     0.869250 
 H    -0.929230    -2.664460    -0.094490 
 H    -0.288030     3.078370     1.081670 
 H    -0.335230     3.286840    -0.671750 
 H     2.075360     2.847480     0.964260 
 H     2.021470     2.945140    -0.801860 
 H    -4.137150     2.889460    -0.333760 
 H    -2.652810     2.730330    -1.320440 
 H    -2.579570     3.463900     0.327140 
 H     3.655830     0.620120     2.137720 
 H     4.405210    -0.855120     1.459490 
 H     2.644640    -0.808170     1.793710 
