   29
 
 N     0.866200    -0.987691    -0.050086 
 C    -0.010355     0.024518     0.045663 
 C    -1.350030    -0.442221     0.092667 
 C    -1.292931    -1.964338     0.143085 
 C     0.203175    -2.287100    -0.084975 
 C     0.304705     1.411032     0.038229 
 C    -0.753672     2.344281    -0.068882 
 C    -2.050391     1.895107    -0.094971 
 C    -2.374618     0.502013    -0.006320 
 O    -3.699141     0.281819     0.000601 
 C    -4.261521    -1.032940     0.006589 
 N     1.618882     1.770959     0.185314 
 O     2.057236     2.880276     0.044975 
 C     2.332747    -0.843221    -0.215886 
 C     2.906433    -0.876960     1.278909 
 O     2.891289    -1.874222    -0.800916 
 O     2.597115     0.374842    -0.793387 
 H    -2.877774     2.600385    -0.158187 
 H    -0.527071     3.408342    -0.101038 
 H    -1.911430    -2.443537    -0.619394 
 H    -1.622249    -2.338488     1.120802 
 H     0.392597    -2.749148    -1.066077 
 H     0.626955    -2.960464     0.670319 
 H    -5.344399    -0.889845     0.023914 
 H    -3.952320    -1.587765     0.899855 
 H    -3.981349    -1.576992    -0.902447 
 H     2.861140    -1.897143     1.669567 
 H     3.945221    -0.540087     1.220545 
 H     2.301854    -0.190869     1.880709 
