   29
 
 N    -0.026553    -0.030854    -0.004320 
 C    -0.015162    -0.022517     1.350487 
 C     1.332615    -0.022259     1.826464 
 C     2.258302    -0.105708     0.641627 
 C     1.311613    -0.280855    -0.558300 
 C    -1.144943     0.022610     2.232588 
 C    -0.869025     0.274563     3.572570 
 C     0.458580     0.343120     4.032554 
 C     1.573758     0.158743     3.189060 
 O     2.786263     0.232972     3.787786 
 C     3.898275    -0.490706     3.259044 
 N    -2.434809    -0.235406     1.774201 
 O    -3.445748     0.019148     2.511972 
 C    -1.118531     0.294374    -0.905340 
 C    -1.807262     1.603254    -0.640523 
 O    -1.176925    -0.320994    -1.948077 
 O    -2.553366    -0.748331     0.588021 
 H     0.647600     0.513684     5.092225 
 H    -1.696430     0.360158     4.272457 
 H     2.966492    -0.937719     0.716585 
 H     2.849410     0.816361     0.543870 
 H     1.333430    -1.300266    -0.968546 
 H     1.500621     0.417656    -1.380165 
 H    -1.900913     1.841743     0.422036 
 H    -2.792347     1.591480    -1.116102 
 H    -1.193724     2.387970    -1.110735 
 H     4.641036    -0.527129     4.060925 
 H     4.332958     0.020195     2.390497 
 H     3.599981    -1.513598     2.990897 
