   31
 
 C     1.910230    -0.706980    -0.008900 
 C     0.822170    -1.604280    -0.061590 
 C     1.774310     0.704880     0.017450 
 C     0.452470     1.208160    -0.027500 
 C    -0.608790     0.301820    -0.130670 
 C    -0.460440    -1.100620    -0.153980 
 C    -0.138140     2.595150     0.111400 
 C    -1.669430     2.359000     0.040230 
 N    -1.816490     0.915240    -0.132970 
 N     3.233800    -1.319300     0.041280 
 O     4.155380    -0.790300    -0.564920 
 O     3.341850    -2.367590     0.673190 
 O     2.874110     1.436450     0.174160 
 C     2.910590     2.831840    -0.150230 
 N    -1.621600    -1.867180    -0.205080 
 C    -3.046190     0.079290     0.193070 
 O    -1.661690    -3.111670    -0.125440 
 H     1.003140    -2.675170    -0.055560 
 H     0.187010     3.270360    -0.687810 
 H     0.146990     3.055300     1.065970 
 H    -2.139250     2.872290    -0.809010 
 H    -2.191310     2.667620     0.954690 
 H     3.970120     3.097970    -0.162280 
 H     2.393780     3.426040     0.611290 
 H     2.477080     3.003230    -1.142590 
 O    -3.016430    -0.077780     1.462700 
 C    -4.287120     0.629290    -0.478770 
 O    -2.766540    -1.200320    -0.609440 
 H    -4.514400     1.614270    -0.054270 
 H    -5.124210    -0.044780    -0.265170 
 H    -4.150340     0.715930    -1.562910 
