   29
 
 C    -1.454920    -1.899210     0.021760 
 C    -1.403670    -0.390260    -0.026800 
 C    -0.042850    -0.019430    -0.090860 
 N     0.773070    -1.077480    -0.077740 
 C     0.030900    -2.327710    -0.058220 
 C     2.290670    -0.963260    -0.044380 
 O     2.495100     0.411290    -0.698910 
 N     1.809090     1.488630    -0.162420 
 C     0.427170     1.315500    -0.079560 
 C    -2.375860     0.630400     0.064400 
 C    -1.881280     1.957440     0.094670 
 C    -0.511110     2.312920     0.051560 
 O     2.392790     2.588010    -0.066060 
 C     2.698400    -0.821440     1.430560 
 O     2.851010    -1.840970    -0.754330 
 H    -2.579760     2.786350     0.173080 
 O    -3.687230     0.456870     0.197530 
 C    -4.326020    -0.781190    -0.141810 
 H    -0.219630     3.359100     0.092710 
 H    -2.037650    -2.325970    -0.802750 
 H    -1.911300    -2.249150     0.957080 
 H     0.275460    -2.893110    -0.967650 
 H     0.357850    -2.931070     0.799660 
 H    -5.396830    -0.566520    -0.127250 
 H    -4.098300    -1.555170     0.599100 
 H    -4.027810    -1.098990    -1.147820 
 H     3.782310    -0.658220     1.453970 
 H     2.193490     0.007110     1.942970 
 H     2.465160    -1.756620     1.954190 
