   22
 
 C    -1.152050    -0.986399    -0.027110 
 C    -0.780630     0.371850    -0.022100 
 C     0.635480     0.711740     0.002730 
 C     1.669140    -0.293460     0.006580 
 C     1.265720    -1.609890    -0.014100 
 C    -0.106460    -1.937950    -0.031570 
 C    -1.529519     1.654521    -0.051530 
 C    -0.403859     2.693250    -0.003120 
 N     0.844801     2.002740     0.015990 
 N     3.027100     0.148839     0.036980 
 O     3.854470    -0.739881     0.015040 
 H    -0.398511    -2.988660    -0.046690 
 O    -2.376230    -1.494249    -0.039700 
 C    -3.558230    -0.687789     0.086910 
 H     2.010089    -2.404770    -0.012290 
 H    -4.387670    -1.397429     0.097450 
 H    -3.662580    -0.015159    -0.771600 
 H    -3.538060    -0.131229     1.030640 
 H    -2.230789     1.756571     0.789160 
 H    -2.134669     1.749171    -0.966960 
 H    -0.435589     3.353330     0.883840 
 H    -0.388989     3.394920    -0.857210 
