   31
 
 C    -0.226007     2.490182     0.095033 
 C     0.453824     1.138450     0.017579 
 C    -0.576059     0.163281    -0.053135 
 N    -1.811543     0.798554    -0.007379 
 C    -1.665178     2.117254     0.052145 
 C     1.793745     0.753456     0.068612 
 C     2.090458    -0.641299     0.067338 
 C     1.094811    -1.593060    -0.048900 
 C    -0.262706    -1.221446    -0.139449 
 N    -1.237983    -2.152781    -0.372783 
 O    -1.104425    -3.362287    -0.374261 
 O     2.860215     1.571210     0.114854 
 C     2.782062     2.924142    -0.337548 
 C    -3.438309    -0.018658     0.076669 
 O    -3.283883    -1.258935     0.495979 
 C    -4.277509     0.797938     1.059711 
 O    -3.927937     0.032816    -1.240546 
 N     3.483467    -1.091226     0.155174 
 H     1.362183    -2.646512    -0.091397 
 H     3.816517     3.268343    -0.417774 
 H     2.247129     3.556330     0.381185 
 H     2.303347     2.969617    -1.324423 
 H     0.020891     3.167859    -0.736309 
 H     0.010962     3.039065     1.021278 
 H    -2.517531     2.785121     0.085590 
 H    -3.791190     0.816873     2.040742 
 H    -4.136545     0.942454    -1.495217 
 H    -4.445602     1.830527     0.720887 
 H    -5.247226     0.297900     1.138615 
 O     3.733127    -2.006125     0.927100 
 O     4.313491    -0.523035    -0.535202 
