   29
 
 C    -0.418100     1.291960    -0.095120 
 C     0.038720    -0.059980    -0.088710 
 C     1.411480    -0.413230    -0.001750 
 C     2.385940     0.594160     0.131280 
 C     1.901410     1.917630     0.174870 
 C     0.535180     2.273750     0.090100 
 N    -0.739180    -1.145290    -0.065830 
 C     0.032940    -2.375120    -0.042200 
 C     1.505780    -1.915260     0.045530 
 C    -2.446350    -1.126890     0.018560 
 O    -2.979070    -1.892940    -0.734890 
 O     3.692630     0.386130     0.322760 
 C     4.362030    -0.715240    -0.307610 
 H     2.604980     2.742440     0.287930 
 N    -1.776290     1.563740    -0.272290 
 O    -2.525870     0.599660    -0.794600 
 O    -2.251900     2.716720    -0.061680 
 C    -2.835330    -0.783770     1.425750 
 H     0.244170     3.319810     0.125120 
 H     1.972110    -2.252960     0.981420 
 H     2.104530    -2.321670    -0.778670 
 H    -0.283040    -2.987110     0.814180 
 H    -0.189210    -2.951180    -0.952600 
 H     5.421580    -0.447130    -0.320520 
 H     4.002170    -0.841860    -1.336180 
 H     4.226480    -1.637920     0.268190 
 H    -2.631510    -1.657890     2.060800 
 H    -3.910610    -0.572500     1.441330 
 H    -2.281850     0.074170     1.818820 
