   29
 
 C    -0.402520     1.274590    -0.081020 
 C     0.074500    -0.065050    -0.077780 
 C     1.449750    -0.406660    -0.018120 
 C     2.411720     0.622380     0.062420 
 C     1.906180     1.945690     0.087400 
 C     0.530090     2.277430     0.042670 
 N    -0.717990    -1.132310    -0.044560 
 C     0.048200    -2.359710    -0.014400 
 C     1.531780    -1.914180     0.044130 
 O     3.725510     0.457040     0.199080 
 C     4.377970    -0.767120    -0.160290 
 H     2.592090     2.788560     0.158240 
 N    -1.786290     1.487960    -0.167450 
 O    -2.512360     0.497360    -0.773350 
 C    -2.520610    -0.976790    -0.051960 
 O    -3.031970    -1.793230    -0.787450 
 O    -2.317310     2.610700     0.005040 
 C    -2.855670    -0.776690     1.405820 
 H     0.225500     3.319770     0.073470 
 H     2.004400    -2.250310     0.976510 
 H     2.111440    -2.337590    -0.784530 
 H    -0.257570    -2.959700     0.854950 
 H    -0.191270    -2.951020    -0.911100 
 H     5.445740    -0.536210    -0.159210 
 H     4.070880    -1.081800    -1.164660 
 H     4.173510    -1.552140     0.575780 
 H    -2.668250    -1.716610     1.939470 
 H    -3.923810    -0.534090     1.473080 
 H    -2.271950     0.023240     1.872420 
