   21
 
 C    -1.124560    -0.965020    -0.000030 
 C    -0.755430     0.387600    -0.000020 
 C     0.614290     0.725040    -0.000010 
 C     1.629820    -0.254220    -0.000010 
 C     1.231280    -1.614820    -0.000020 
 C    -0.101080    -1.956580    -0.000030 
 C    -1.505020     1.698180    -0.000040 
 C    -0.358860     2.668320    -0.000010 
 N     0.809150     2.121450     0.000020 
 N     2.957220     0.173710     0.000040 
 O     3.821150    -0.706490     0.000040 
 O    -2.368320    -1.459590    -0.000050 
 C    -3.519900    -0.613600     0.000100 
 H    -0.412170    -3.000720    -0.000040 
 H     2.001700    -2.383850    -0.000020 
 H    -4.379990    -1.287330     0.000150 
 H    -3.543790     0.010510    -0.901450 
 H    -3.543610     0.010400     0.901730 
 H    -2.144060     1.855560     0.881950 
 H    -2.144020     1.855540    -0.882070 
 H    -0.484490     3.752980     0.000000 
