   29
 
 C    -2.292230    -1.085400     0.017900 
 N    -0.767790    -1.112350    -0.092620 
 C     0.024440    -0.032020    -0.103970 
 C    -0.443770     1.309440    -0.100260 
 N    -1.808680     1.528730    -0.257670 
 O    -2.520080     0.493970    -0.739240 
 C     1.392170    -0.391530    -0.027760 
 C     2.362300     0.624860     0.097880 
 C     1.866700     1.946590     0.145060 
 C     0.499480     2.300770     0.074440 
 C    -0.001020    -2.350510    -0.091300 
 C     1.472340    -1.896640     0.004860 
 O     3.673050     0.444960     0.263570 
 C     4.333250    -0.740880    -0.198830 
 H     2.567390     2.774450     0.253620 
 O    -2.347300     2.652490    -0.079160 
 O    -2.864510    -1.916480    -0.683470 
 C    -2.692220    -0.800390     1.455630 
 H     0.204960     3.345950     0.116600 
 H     1.929840    -2.248070     0.939530 
 H     2.070750    -2.300850    -0.820050 
 H    -0.323340    -2.974620     0.753170 
 H    -0.228590    -2.903970    -1.013180 
 H     5.399150    -0.501230    -0.191640 
 H     4.017000    -0.979010    -1.221460 
 H     4.144290    -1.583000     0.476120 
 H    -2.446330    -1.680650     2.065570 
 H    -3.775810    -0.640510     1.478400 
 H    -2.181950     0.071540     1.879770 
