   32
 
 N    -0.044985    -0.023323     0.002345 
 C    -0.053934    -0.059455     1.355624 
 C     1.290211    -0.034877     1.830420 
 C     2.244878    -0.063192     0.679943 
 C     1.318478    -0.039353    -0.540256 
 C    -1.155077    -0.004170     2.281938 
 C    -0.834210     0.225611     3.615125 
 C     0.503929     0.285734     4.050057 
 C     1.598221     0.127426     3.182057 
 N     0.730593     0.552742     5.465715 
 O    -0.032203     1.338303     6.019754 
 O     2.881122     0.284398     3.576939 
 C     3.645285    -0.916602     3.785689 
 N    -2.501703    -0.173283     1.916058 
 O    -3.402078     0.383463     2.643105 
 C    -1.160525     0.223787    -0.901061 
 C    -1.626603     1.682282    -0.829673 
 O    -2.788923    -1.118671     1.078770 
 O     1.648652    -0.032829     6.025830 
 H    -1.639651     0.328193     4.335830 
 H     2.872278    -0.964934     0.697783 
 H     2.925737     0.798387     0.708496 
 H     1.419814    -0.918596    -1.191451 
 H     1.449052     0.853402    -1.166858 
 H    -2.015189     1.920851     0.167623 
 H    -2.433382     1.823824    -1.559484 
 H    -0.809155     2.373596    -1.070982 
 H     3.231508    -1.478980     4.631337 
 H     4.664972    -0.590944     4.009105 
 H     3.644000    -1.539089     2.881113 
 H    -1.972124    -0.451761    -0.609954 
 H    -0.807484    -0.025617    -1.906638 
