   40
 
 C     3.615110    -0.465215     0.386000  0.334133
 C     2.712501     0.532014     0.004495 -0.019211
 C     1.416685     0.216151    -0.411344  0.093185
 C     1.051199    -1.140236    -0.570660 -0.091700
 C     1.957983    -2.137326    -0.166529 -0.209868
 C     3.216106    -1.819843     0.315167 -0.276588
 C     2.912263     2.024647    -0.024120 -0.192681
 C     1.695713     2.497155    -0.845796 -0.111745
 N     0.711456     1.400728    -0.670838 -0.020429
 C    -0.605200     1.700383    -0.405169  0.310524
 O    -1.079655     2.769076    -0.772336 -0.451884
 N    -0.136166    -1.556701    -1.270546  0.523102
 O    -0.765670    -0.716732    -1.916660 -0.385314
 H     3.892897    -2.621111     0.598202  0.176219
 O     4.821116    -0.051042     0.800353 -0.288619
 C     5.796782    -1.011622     1.206519 -0.229318
 O    -0.462093    -2.743104    -1.229924 -0.382029
 C    -1.400658     0.787143     0.533891  0.007465
 C    -2.848847     0.633061     0.057648 -0.201128
 C    -3.626371    -0.361027     0.910447 -0.235016
 C    -5.058198    -0.539827     0.476060  0.355752
 O    -5.608147     0.056436    -0.425041 -0.414777
 N    -1.230507     1.399380     1.856575 -0.598968
 O    -5.694858    -1.463606     1.219145 -0.414799
 H     1.664792    -3.177409    -0.281456  0.176895
 H     3.863002     2.309077    -0.488713  0.144723
 H     2.899817     2.441840     0.994904  0.123788
 H     1.949772     2.596458    -1.909929  0.125490
 H     1.254568     3.434102    -0.499559  0.147845
 H     5.432905    -1.595244     2.063401  0.148623
 H     6.679642    -0.437902     1.497942  0.159870
 H     6.047671    -1.683375     0.373911  0.148167
 H    -0.932464    -0.197210     0.601980  0.129916
 H    -1.829306     2.213996     1.966815  0.249473
 H    -1.439158     0.746675     2.605254  0.259445
 H    -3.334879     1.617338     0.081352  0.125688
 H    -2.850726     0.301676    -0.988105  0.121366
 H    -3.149805    -1.353914     0.897816  0.153604
 H    -3.646806    -0.056522     1.968446  0.142584
 H    -6.611351    -1.543312     0.907446  0.366666
