   40
 
 C    -3.844174     0.332759    -0.613697  0.303747
 C    -2.864537    -0.534740    -0.119234 -0.043166
 C    -1.637628     0.021791     0.334923  0.087448
 C    -1.368186     1.416664     0.353014  0.006118
 C    -2.336488     2.251713    -0.175764 -0.184797
 C    -3.553461     1.711964    -0.642535 -0.172369
 C    -2.747851    -2.038186    -0.035528 -0.217391
 C    -1.343145    -2.269527     0.568698 -0.105907
 N    -0.772211    -0.933505     0.693767  0.130933
 C     0.705268    -0.720074     1.061197  0.269646
 O     1.100401    -1.369789     2.023815 -0.476199
 N    -0.152837     1.858229     0.874429  0.340470
 O     0.554303     0.977077     1.599534 -0.404769
 O    -5.047031    -0.026849    -1.116566 -0.312777
 C    -5.670051    -1.239038    -0.689803 -0.230324
 O     0.297659     3.021036     0.668625 -0.487720
 C     1.556004    -0.594764    -0.230943  0.052126
 N     0.992840     0.317197    -1.209386 -0.589685
 C     3.012538    -0.307249     0.159661 -0.263567
 C     3.965727    -0.471532    -1.034703 -0.204999
 C     5.392856    -0.243211    -0.609375  0.358702
 O     6.229356    -0.102904    -1.652671 -0.413875
 O     5.772749    -0.159670     0.540221 -0.417113
 H    -4.316338     2.380801    -1.039524  0.166598
 H    -2.162017     3.324452    -0.212190  0.167376
 H    -2.827491    -2.494472    -1.031641  0.169351
 H    -3.527881    -2.488302     0.588827  0.170921
 H    -0.694598    -2.885837    -0.068075  0.162946
 H    -1.370657    -2.738213     1.561868  0.162555
 H    -6.712829    -1.169449    -1.011458  0.161091
 H    -5.630190    -1.328006     0.404350  0.151578
 H    -5.205527    -2.114603    -1.161080  0.145086
 H     1.509170    -1.606328    -0.665437  0.118517
 H     3.070618     0.717176     0.553881  0.119964
 H     3.306996    -0.987471     0.967174  0.116747
 H     7.124894     0.076644    -1.320532  0.366473
 H     3.893294    -1.494348    -1.428429  0.150752
 H     3.705838     0.233079    -1.833620  0.141306
 H     1.350525     1.263368    -1.114173  0.246634
 H     1.150919     0.007434    -2.160739  0.257472
