   40
 
 C    -1.387854     1.373538     0.366300  0.008132
 C    -1.676476    -0.016650     0.273922  0.088607
 C    -2.953302    -0.514970    -0.115312 -0.026421
 C    -3.958883     0.397026    -0.460973  0.291415
 C    -3.647450     1.767278    -0.424603 -0.182786
 C    -2.383714     2.251644    -0.026920 -0.193108
 N    -0.802167    -1.014444     0.444395  0.066420
 C    -1.406059    -2.318561     0.236017 -0.094848
 C    -2.869234    -2.020591    -0.167248 -0.231802
 C     0.833874    -0.864807     0.916505  0.316798
 O     1.118830    -1.512835     1.883889 -0.372720
 O    -5.206140     0.079481    -0.885100 -0.317213
 C    -5.835688    -1.118347    -0.428250 -0.227991
 H    -4.424945     2.474619    -0.711207  0.163394
 N    -0.127213     1.791524     0.804279  0.333239
 O     0.589696     0.931364     1.518546 -0.458566
 O     0.329707     2.942981     0.526964 -0.504072
 C     1.690225    -0.675092    -0.335092  0.062613
 C     3.123873    -0.328540     0.100633 -0.325163
 C     4.111970    -0.397805    -1.078607 -0.159027
 C     5.489944    -0.018541    -0.606156  0.359715
 O     5.940891     1.107217    -0.577973 -0.420055
 H     4.121978    -1.414437    -1.491793  0.139565
 O     6.178850    -1.082077    -0.153858 -0.412664
 H    -2.189826     3.321594    -0.007906  0.165232
 H    -3.087757    -2.397319    -1.175565  0.169780
 H    -3.576875    -2.502590     0.518059  0.167835
 H    -0.846735    -2.856551    -0.542598  0.158514
 H    -1.322955    -2.905838     1.161843  0.161154
 H    -6.901456    -0.997563    -0.642068  0.159476
 H    -5.692022    -1.241067     0.654026  0.151063
 H    -5.460327    -1.999378    -0.963889  0.143369
 H     1.700291    -1.680016    -0.788734  0.136104
 N     1.095168     0.225058    -1.302876 -0.584618
 H     7.034780    -0.784053     0.195963  0.366366
 H     3.119092     0.681688     0.532519  0.131833
 H     3.439216    -1.023181     0.889389  0.134400
 H     3.818891     0.311721    -1.860224  0.131842
 H     1.354508    -0.019976    -2.250942  0.259072
 H     1.351595     1.194818    -1.138483  0.245145
