40

C         -0.16808       -0.30468        0.31832
C         -0.10271       -0.20372        1.71125
C          1.12424       -0.16132        2.37804
C          2.31826       -0.35090        1.64515
C          2.24547       -0.43245        0.24236
C          1.03219       -0.40021       -0.42294
C         -1.23123       -0.11053        2.70445
C         -0.50690       -0.37043        4.04094
N          0.89926        0.00526        3.75264
C          1.60354        0.76384        4.65956
O          1.30875        0.73287        5.84875
N          3.58746       -0.62294        2.26825
O          3.60968       -0.88509        3.47243
H          1.01924       -0.48558       -1.50587
O         -1.39487       -0.30346       -0.22266
C         -1.54213       -0.40327       -1.63968
O          4.60208       -0.62023        1.57114
C          2.60602        1.80093        4.14180
C          3.84760        1.86322        5.03756
C          4.90710        2.80377        4.47825
C          6.14524        2.89567        5.33226
O          6.31994        2.33797        6.39453
N          1.82508        3.04020        4.05441
O          7.07703        3.69310        4.77842
H          3.16904       -0.56647       -0.31442
H         -2.01976       -0.84598        2.50956
H         -1.69281        0.88897        2.68131
H         -0.55401       -1.43240        4.31804
H         -0.87437        0.22878        4.87656
H         -1.05501        0.44463       -2.14073
H         -2.61724       -0.37864       -1.83218
H         -1.12000       -1.34919       -2.00639
H          2.90641        1.56867        3.11778
H          1.69781        3.46250        4.97080
H          2.26619        3.72330        3.44706
H          3.54269        2.18671        6.04155
H          4.26778        0.85520        5.14130
H          5.22246        2.49282        3.46980
H          4.51856        3.82770        4.36373
H          7.85293        3.72529        5.36186
