42

C         -3.21354        0.25381       -0.37494
C         -2.20872        1.18619       -0.15381
C         -0.91800        0.80854        0.26713
C         -0.67729       -0.54184        0.60181
C         -1.66059       -1.49757        0.34754
C         -2.90449       -1.11597       -0.13472
C         -2.23716        2.67537       -0.38966
C         -0.93879        3.14355        0.29642
N         -0.09621        1.92137        0.30727
C          1.27451        2.02372        0.08760
O          1.84447        3.06682        0.36654
N          0.49188       -0.97410        1.34949
O          1.13226       -0.12099        1.95684
N         -3.88281       -2.17135       -0.34958
O         -5.07276       -1.89510       -0.26487
O         -4.38509        0.64603       -0.91447
C         -5.39228        1.14821       -0.01821
O         -3.45993       -3.29820       -0.59461
O          0.75767       -2.16910        1.37788
C          1.96845        0.91264       -0.66711
C          3.35765        0.57987       -0.12627
C          4.01279       -0.56570       -0.92134
N          3.20666       -1.76906       -0.85054
C          5.44297       -0.75061       -0.41392
O          5.81281       -1.64477        0.31461
O          6.26311        0.21394       -0.85971
H         -1.46873       -2.53930        0.58547
H         -3.12089        3.16172        0.03377
H         -2.22236        2.88774       -1.46933
H         -1.12471        3.46882        1.32844
H         -0.41334        3.93905       -0.23590
H         -5.73668        0.34428        0.64296
H         -6.21302        1.49561       -0.65164
H         -4.99930        1.98459        0.57414
H          2.06135        1.30430       -1.69368
H          1.36051        0.01086       -0.75569
H          3.99400        1.47099       -0.16931
H          3.28481        0.28205        0.92903
H          4.08836       -0.25706       -1.97517
H          7.15222        0.07713       -0.49245
H          3.60360       -2.51585       -1.41324
H          3.14385       -2.11335        0.10533
